<?xml version="1.0" encoding="UTF-8"?>

<!-- generated on 2026-06-15 22:29:45.143978 by Eclipse SUMO randomTrips.py v1_27_0+0000-e238ea04b71
<configuration>
    <net-file value="runs\dashboard\run_11929449\net.net.xml"/>
    <route-file value="runs\dashboard\run_11929449\routes.rou.xml"/>
    <fringe-factor value="5"/>
    <end value="600.0"/>
    <period value="1.6"/>
</configuration>
-->

<routes xmlns:xsi="http://www.w3.org/2001/XMLSchema-instance" xsi:noNamespaceSchemaLocation="http://sumo.dlr.de/xsd/routes_file.xsd">
    <trip id="0" depart="0.00" from="left2A2" to="A0bottom0"/>
    <trip id="1" depart="1.60" from="C2C1" to="A1left1"/>
    <trip id="2" depart="3.20" from="right1C1" to="C0bottom2"/>
    <trip id="3" depart="4.80" from="top1B2" to="A0left0"/>
    <trip id="4" depart="6.40" from="bottom2C0" to="A0bottom0"/>
    <trip id="5" depart="8.00" from="C0C1" to="B1B2"/>
    <trip id="6" depart="9.60" from="A1A0" to="A1left1"/>
    <trip id="7" depart="11.20" from="right0C0" to="B2B1"/>
    <trip id="8" depart="12.80" from="C0C1" to="B2top1"/>
    <trip id="9" depart="14.40" from="right2C2" to="A0A1"/>
    <trip id="10" depart="16.00" from="right2C2" to="C0bottom2"/>
    <trip id="11" depart="17.60" from="bottom0A0" to="A1A2"/>
    <trip id="12" depart="19.20" from="top2C2" to="A2top0"/>
    <trip id="13" depart="20.80" from="B0A0" to="A0left0"/>
    <trip id="14" depart="22.40" from="top0A2" to="B2top1"/>
    <trip id="15" depart="24.00" from="right2C2" to="C0right0"/>
    <trip id="16" depart="25.60" from="left1A1" to="C2top2"/>
    <trip id="17" depart="27.20" from="bottom1B0" to="B2C2"/>
    <trip id="18" depart="28.80" from="top0A2" to="B2top1"/>
    <trip id="19" depart="30.40" from="top0A2" to="B2top1"/>
    <trip id="20" depart="32.00" from="right1C1" to="A0bottom0"/>
    <trip id="21" depart="33.60" from="C1B1" to="A2left2"/>
    <trip id="22" depart="35.20" from="A2B2" to="A1left1"/>
    <trip id="23" depart="36.80" from="B0B1" to="A2left2"/>
    <trip id="24" depart="38.40" from="left2A2" to="A2top0"/>
    <trip id="25" depart="40.00" from="bottom1B0" to="A1left1"/>
    <trip id="26" depart="41.60" from="C2B2" to="C2right2"/>
    <trip id="27" depart="43.20" from="right0C0" to="B2top1"/>
    <trip id="28" depart="44.80" from="B2A2" to="C0right0"/>
    <trip id="29" depart="46.40" from="B1C1" to="A2top0"/>
    <trip id="30" depart="48.00" from="top2C2" to="C0C1"/>
    <trip id="31" depart="49.60" from="left1A1" to="C0bottom2"/>
    <trip id="32" depart="51.20" from="top0A2" to="C1C0"/>
    <trip id="33" depart="52.80" from="C1B1" to="A0bottom0"/>
    <trip id="34" depart="54.40" from="bottom0A0" to="A2left2"/>
    <trip id="35" depart="56.00" from="C0B0" to="C2top2"/>
    <trip id="36" depart="57.60" from="top0A2" to="A2left2"/>
    <trip id="37" depart="59.20" from="right0C0" to="B0B1"/>
    <trip id="38" depart="60.80" from="top1B2" to="B0bottom1"/>
    <trip id="39" depart="62.40" from="C2B2" to="A2A1"/>
    <trip id="40" depart="64.00" from="left1A1" to="A2left2"/>
    <trip id="41" depart="65.60" from="left2A2" to="C2right2"/>
    <trip id="42" depart="67.20" from="bottom1B0" to="A1left1"/>
    <trip id="43" depart="68.80" from="top2C2" to="B1B2"/>
    <trip id="44" depart="70.40" from="B0A0" to="A0bottom0"/>
    <trip id="45" depart="72.00" from="B0C0" to="C0B0"/>
    <trip id="46" depart="73.60" from="right2C2" to="B0bottom1"/>
    <trip id="47" depart="75.20" from="A2A1" to="B0A0"/>
    <trip id="48" depart="76.80" from="top2C2" to="B2A2"/>
    <trip id="49" depart="78.40" from="top2C2" to="C2B2"/>
    <trip id="50" depart="80.00" from="A0A1" to="C0right0"/>
    <trip id="51" depart="81.60" from="right0C0" to="B2B1"/>
    <trip id="52" depart="83.20" from="C2B2" to="C0C1"/>
    <trip id="53" depart="84.80" from="B0C0" to="B0bottom1"/>
    <trip id="54" depart="86.40" from="bottom2C0" to="C2top2"/>
    <trip id="55" depart="88.00" from="top0A2" to="A2left2"/>
    <trip id="56" depart="89.60" from="left0A0" to="A1left1"/>
    <trip id="57" depart="91.20" from="top1B2" to="C2C1"/>
    <trip id="58" depart="92.80" from="bottom0A0" to="C0C1"/>
    <trip id="59" depart="94.40" from="left2A2" to="A1A0"/>
    <trip id="60" depart="96.00" from="right2C2" to="B2B1"/>
    <trip id="61" depart="97.60" from="right2C2" to="B2A2"/>
    <trip id="62" depart="99.20" from="A0A1" to="A2top0"/>
    <trip id="63" depart="100.80" from="A0B0" to="C2right2"/>
    <trip id="64" depart="102.40" from="top0A2" to="C1right1"/>
    <trip id="65" depart="104.00" from="bottom0A0" to="A0bottom0"/>
    <trip id="66" depart="105.60" from="top0A2" to="C2top2"/>
    <trip id="67" depart="107.20" from="B0A0" to="B1A1"/>
    <trip id="68" depart="108.80" from="A2A1" to="C0right0"/>
    <trip id="69" depart="110.40" from="right2C2" to="A0left0"/>
    <trip id="70" depart="112.00" from="left0A0" to="B2C2"/>
    <trip id="71" depart="113.60" from="C2B2" to="C2C1"/>
    <trip id="72" depart="115.20" from="bottom2C0" to="A1left1"/>
    <trip id="73" depart="116.80" from="left1A1" to="C0right0"/>
    <trip id="74" depart="118.40" from="B2C2" to="A2left2"/>
    <trip id="75" depart="120.00" from="top2C2" to="C0bottom2"/>
    <trip id="76" depart="121.60" from="bottom2C0" to="B1C1"/>
    <trip id="77" depart="123.20" from="B1A1" to="A1left1"/>
    <trip id="78" depart="124.80" from="bottom0A0" to="B2top1"/>
    <trip id="79" depart="126.40" from="C1B1" to="A1left1"/>
    <trip id="80" depart="128.00" from="A2A1" to="C0C1"/>
    <trip id="81" depart="129.60" from="C1B1" to="C2right2"/>
    <trip id="82" depart="131.20" from="top0A2" to="A0bottom0"/>
    <trip id="83" depart="132.80" from="C1B1" to="C0bottom2"/>
    <trip id="84" depart="134.40" from="C0B0" to="A0left0"/>
    <trip id="85" depart="136.00" from="top1B2" to="B2top1"/>
    <trip id="86" depart="137.60" from="left0A0" to="C1C0"/>
    <trip id="87" depart="139.20" from="right2C2" to="A1left1"/>
    <trip id="88" depart="140.80" from="B0B1" to="B0bottom1"/>
    <trip id="89" depart="142.40" from="bottom2C0" to="B0bottom1"/>
    <trip id="90" depart="144.00" from="right1C1" to="C0bottom2"/>
    <trip id="91" depart="145.60" from="top2C2" to="A0left0"/>
    <trip id="92" depart="147.20" from="bottom1B0" to="A2top0"/>
    <trip id="93" depart="148.80" from="top0A2" to="A2A1"/>
    <trip id="94" depart="150.40" from="B2B1" to="B0bottom1"/>
    <trip id="95" depart="152.00" from="bottom2C0" to="A2left2"/>
    <trip id="96" depart="153.60" from="C1C0" to="C2right2"/>
    <trip id="97" depart="155.20" from="bottom2C0" to="C2B2"/>
    <trip id="98" depart="156.80" from="left1A1" to="A0bottom0"/>
    <trip id="99" depart="158.40" from="top2C2" to="C1right1"/>
    <trip id="100" depart="160.00" from="top2C2" to="C2right2"/>
    <trip id="101" depart="161.60" from="top0A2" to="A1A2"/>
    <trip id="102" depart="163.20" from="left0A0" to="A1left1"/>
    <trip id="103" depart="164.80" from="bottom1B0" to="A0bottom0"/>
    <trip id="104" depart="166.40" from="bottom1B0" to="C2top2"/>
    <trip id="105" depart="168.00" from="C2B2" to="C1C0"/>
    <trip id="106" depart="169.60" from="bottom2C0" to="B0bottom1"/>
    <trip id="107" depart="171.20" from="top2C2" to="C2top2"/>
    <trip id="108" depart="172.80" from="left1A1" to="C0right0"/>
    <trip id="109" depart="174.40" from="B1C1" to="A2left2"/>
    <trip id="110" depart="176.00" from="top2C2" to="B2top1"/>
    <trip id="111" depart="177.60" from="left1A1" to="C0right0"/>
    <trip id="112" depart="179.20" from="A1B1" to="B2top1"/>
    <trip id="113" depart="180.80" from="left0A0" to="C1right1"/>
    <trip id="114" depart="182.40" from="B1C1" to="C2top2"/>
    <trip id="115" depart="184.00" from="A2B2" to="A1left1"/>
    <trip id="116" depart="185.60" from="left2A2" to="C0bottom2"/>
    <trip id="117" depart="187.20" from="C1B1" to="A0left0"/>
    <trip id="118" depart="188.80" from="top1B2" to="A2A1"/>
    <trip id="119" depart="190.40" from="left2A2" to="C0B0"/>
    <trip id="120" depart="192.00" from="bottom2C0" to="B2top1"/>
    <trip id="121" depart="193.60" from="left0A0" to="C2right2"/>
    <trip id="122" depart="195.20" from="C0B0" to="C0right0"/>
    <trip id="123" depart="196.80" from="C1C0" to="B0B1"/>
    <trip id="124" depart="198.40" from="right0C0" to="A2left2"/>
    <trip id="125" depart="200.00" from="bottom0A0" to="C0right0"/>
    <trip id="126" depart="201.60" from="A2B2" to="B0bottom1"/>
    <trip id="127" depart="203.20" from="top2C2" to="C2top2"/>
    <trip id="128" depart="204.80" from="A2B2" to="A1left1"/>
    <trip id="129" depart="206.40" from="C2B2" to="C2right2"/>
    <trip id="130" depart="208.00" from="top0A2" to="C2C1"/>
    <trip id="131" depart="209.60" from="bottom1B0" to="A1A2"/>
    <trip id="132" depart="211.20" from="top0A2" to="C0right0"/>
    <trip id="133" depart="212.80" from="left2A2" to="C2top2"/>
    <trip id="134" depart="214.40" from="right0C0" to="A0A1"/>
    <trip id="135" depart="216.00" from="right2C2" to="A2left2"/>
    <trip id="136" depart="217.60" from="right0C0" to="C2right2"/>
    <trip id="137" depart="219.20" from="B1B0" to="A0left0"/>
    <trip id="138" depart="220.80" from="B0B1" to="B2C2"/>
    <trip id="139" depart="222.40" from="C2B2" to="B2top1"/>
    <trip id="140" depart="224.00" from="right1C1" to="A1left1"/>
    <trip id="141" depart="225.60" from="left2A2" to="A2left2"/>
    <trip id="142" depart="227.20" from="left0A0" to="C2right2"/>
    <trip id="143" depart="228.80" from="top0A2" to="A0left0"/>
    <trip id="144" depart="230.40" from="bottom2C0" to="A2left2"/>
    <trip id="145" depart="232.00" from="A0A1" to="C1B1"/>
    <trip id="146" depart="233.60" from="left2A2" to="A2left2"/>
    <trip id="147" depart="235.20" from="right1C1" to="B2C2"/>
    <trip id="148" depart="236.80" from="bottom2C0" to="A0A1"/>
    <trip id="149" depart="238.40" from="A2B2" to="C2right2"/>
    <trip id="150" depart="240.00" from="top1B2" to="B2B1"/>
    <trip id="151" depart="241.60" from="top0A2" to="B2top1"/>
    <trip id="152" depart="243.20" from="B1B2" to="A0left0"/>
    <trip id="153" depart="244.80" from="bottom0A0" to="C2right2"/>
    <trip id="154" depart="246.40" from="right2C2" to="C2B2"/>
    <trip id="155" depart="248.00" from="top1B2" to="A1left1"/>
    <trip id="156" depart="249.60" from="C1C0" to="A0left0"/>
    <trip id="157" depart="251.20" from="right2C2" to="C2right2"/>
    <trip id="158" depart="252.80" from="bottom2C0" to="C0B0"/>
    <trip id="159" depart="254.40" from="B1B2" to="C2right2"/>
    <trip id="160" depart="256.00" from="top0A2" to="C2top2"/>
    <trip id="161" depart="257.60" from="right2C2" to="C2right2"/>
    <trip id="162" depart="259.20" from="A1A0" to="C0right0"/>
    <trip id="163" depart="260.80" from="bottom0A0" to="C2right2"/>
    <trip id="164" depart="262.40" from="right2C2" to="C2B2"/>
    <trip id="165" depart="264.00" from="right2C2" to="A2left2"/>
    <trip id="166" depart="265.60" from="right2C2" to="A0left0"/>
    <trip id="167" depart="267.20" from="top0A2" to="C2B2"/>
    <trip id="168" depart="268.80" from="C0C1" to="C1right1"/>
    <trip id="169" depart="270.40" from="bottom2C0" to="A2left2"/>
    <trip id="170" depart="272.00" from="right2C2" to="A1left1"/>
    <trip id="171" depart="273.60" from="A0B0" to="A1left1"/>
    <trip id="172" depart="275.20" from="bottom0A0" to="C2B2"/>
    <trip id="173" depart="276.80" from="top2C2" to="A2left2"/>
    <trip id="174" depart="278.40" from="left2A2" to="B0B1"/>
    <trip id="175" depart="280.00" from="top2C2" to="B2B1"/>
    <trip id="176" depart="281.60" from="top1B2" to="A0left0"/>
    <trip id="177" depart="283.20" from="top2C2" to="A1B1"/>
    <trip id="178" depart="284.80" from="top2C2" to="A2left2"/>
    <trip id="179" depart="286.40" from="B0C0" to="B0bottom1"/>
    <trip id="180" depart="288.00" from="right1C1" to="A2left2"/>
    <trip id="181" depart="289.60" from="left2A2" to="B1B2"/>
    <trip id="182" depart="291.20" from="bottom1B0" to="B2top1"/>
    <trip id="183" depart="292.80" from="C1C2" to="C0right0"/>
    <trip id="184" depart="294.40" from="A0A1" to="C2right2"/>
    <trip id="185" depart="296.00" from="left1A1" to="C0right0"/>
    <trip id="186" depart="297.60" from="right1C1" to="C0bottom2"/>
    <trip id="187" depart="299.20" from="bottom1B0" to="A0bottom0"/>
    <trip id="188" depart="300.80" from="right0C0" to="A2top0"/>
    <trip id="189" depart="302.40" from="bottom0A0" to="C1right1"/>
    <trip id="190" depart="304.00" from="right1C1" to="A2left2"/>
    <trip id="191" depart="305.60" from="bottom0A0" to="B0C0"/>
    <trip id="192" depart="307.20" from="bottom1B0" to="A2left2"/>
    <trip id="193" depart="308.80" from="B1A1" to="B0bottom1"/>
    <trip id="194" depart="310.40" from="top1B2" to="C0bottom2"/>
    <trip id="195" depart="312.00" from="top1B2" to="B2top1"/>
    <trip id="196" depart="313.60" from="bottom0A0" to="B2C2"/>
    <trip id="197" depart="315.20" from="A0A1" to="A2left2"/>
    <trip id="198" depart="316.80" from="bottom2C0" to="B2top1"/>
    <trip id="199" depart="318.40" from="right0C0" to="B0bottom1"/>
    <trip id="200" depart="320.00" from="bottom2C0" to="A1left1"/>
    <trip id="201" depart="321.60" from="left0A0" to="C2right2"/>
    <trip id="202" depart="323.20" from="right2C2" to="A1B1"/>
    <trip id="203" depart="324.80" from="B0A0" to="B1C1"/>
    <trip id="204" depart="326.40" from="left2A2" to="A2top0"/>
    <trip id="205" depart="328.00" from="right2C2" to="C0right0"/>
    <trip id="206" depart="329.60" from="right0C0" to="A1left1"/>
    <trip id="207" depart="331.20" from="B2C2" to="A0bottom0"/>
    <trip id="208" depart="332.80" from="C1C0" to="B0bottom1"/>
    <trip id="209" depart="334.40" from="top0A2" to="A0bottom0"/>
    <trip id="210" depart="336.00" from="bottom2C0" to="C0B0"/>
    <trip id="211" depart="337.60" from="B2C2" to="C0bottom2"/>
    <trip id="212" depart="339.20" from="left0A0" to="A2A1"/>
    <trip id="213" depart="340.80" from="right0C0" to="A0A1"/>
    <trip id="214" depart="342.40" from="right1C1" to="C1B1"/>
    <trip id="215" depart="344.00" from="B0B1" to="B0bottom1"/>
    <trip id="216" depart="345.60" from="B2A2" to="C2top2"/>
    <trip id="217" depart="347.20" from="left0A0" to="A0bottom0"/>
    <trip id="218" depart="348.80" from="C1C0" to="C1right1"/>
    <trip id="219" depart="350.40" from="bottom2C0" to="C1right1"/>
    <trip id="220" depart="352.00" from="right0C0" to="C2top2"/>
    <trip id="221" depart="353.60" from="left2A2" to="C2top2"/>
    <trip id="222" depart="355.20" from="top1B2" to="B2top1"/>
    <trip id="223" depart="356.80" from="right1C1" to="B1B2"/>
    <trip id="224" depart="358.40" from="top0A2" to="B2C2"/>
    <trip id="225" depart="360.00" from="top1B2" to="C0right0"/>
    <trip id="226" depart="361.60" from="left0A0" to="A2B2"/>
    <trip id="227" depart="363.20" from="C1C0" to="C0C1"/>
    <trip id="228" depart="364.80" from="right2C2" to="B1C1"/>
    <trip id="229" depart="366.40" from="left2A2" to="A2left2"/>
    <trip id="230" depart="368.00" from="A2B2" to="A2left2"/>
    <trip id="231" depart="369.60" from="C2B2" to="A2left2"/>
    <trip id="232" depart="371.20" from="left1A1" to="A0left0"/>
    <trip id="233" depart="372.80" from="C1B1" to="C0bottom2"/>
    <trip id="234" depart="374.40" from="right1C1" to="A0bottom0"/>
    <trip id="235" depart="376.00" from="bottom2C0" to="B2B1"/>
    <trip id="236" depart="377.60" from="bottom2C0" to="A1left1"/>
    <trip id="237" depart="379.20" from="bottom2C0" to="C2right2"/>
    <trip id="238" depart="380.80" from="left2A2" to="C0bottom2"/>
    <trip id="239" depart="382.40" from="top0A2" to="C1B1"/>
    <trip id="240" depart="384.00" from="bottom1B0" to="A0A1"/>
    <trip id="241" depart="385.60" from="bottom1B0" to="C0right0"/>
    <trip id="242" depart="387.20" from="top0A2" to="C2top2"/>
    <trip id="243" depart="388.80" from="bottom2C0" to="C0right0"/>
    <trip id="244" depart="390.40" from="left1A1" to="B2top1"/>
    <trip id="245" depart="392.00" from="C0C1" to="A1left1"/>
    <trip id="246" depart="393.60" from="bottom2C0" to="A0bottom0"/>
    <trip id="247" depart="395.20" from="bottom0A0" to="C0bottom2"/>
    <trip id="248" depart="396.80" from="bottom1B0" to="A1A2"/>
    <trip id="249" depart="398.40" from="left0A0" to="A0left0"/>
    <trip id="250" depart="400.00" from="left2A2" to="A0bottom0"/>
    <trip id="251" depart="401.60" from="bottom1B0" to="B2top1"/>
    <trip id="252" depart="403.20" from="A1A0" to="C0C1"/>
    <trip id="253" depart="404.80" from="B1B0" to="B0bottom1"/>
    <trip id="254" depart="406.40" from="A1B1" to="A2top0"/>
    <trip id="255" depart="408.00" from="C0B0" to="A2top0"/>
    <trip id="256" depart="409.60" from="right1C1" to="A2top0"/>
    <trip id="257" depart="411.20" from="right1C1" to="C1right1"/>
    <trip id="258" depart="412.80" from="C1C2" to="A0bottom0"/>
    <trip id="259" depart="414.40" from="A0B0" to="B2B1"/>
    <trip id="260" depart="416.00" from="top2C2" to="A2top0"/>
    <trip id="261" depart="417.60" from="right0C0" to="C1C0"/>
    <trip id="262" depart="419.20" from="right0C0" to="C0right0"/>
    <trip id="263" depart="420.80" from="top2C2" to="A1left1"/>
    <trip id="264" depart="422.40" from="A0B0" to="A1A0"/>
    <trip id="265" depart="424.00" from="B1A1" to="C0bottom2"/>
    <trip id="266" depart="425.60" from="left1A1" to="A1left1"/>
    <trip id="267" depart="427.20" from="right0C0" to="C1B1"/>
    <trip id="268" depart="428.80" from="B2A2" to="B2top1"/>
    <trip id="269" depart="430.40" from="right1C1" to="A0left0"/>
    <trip id="270" depart="432.00" from="right2C2" to="C2top2"/>
    <trip id="271" depart="433.60" from="B0C0" to="A0bottom0"/>
    <trip id="272" depart="435.20" from="bottom0A0" to="C0bottom2"/>
    <trip id="273" depart="436.80" from="top2C2" to="B0B1"/>
    <trip id="274" depart="438.40" from="right1C1" to="A0bottom0"/>
    <trip id="275" depart="440.00" from="right0C0" to="C0B0"/>
    <trip id="276" depart="441.60" from="B0B1" to="C1B1"/>
    <trip id="277" depart="443.20" from="top0A2" to="B2top1"/>
    <trip id="278" depart="444.80" from="B1A1" to="C2top2"/>
    <trip id="279" depart="446.40" from="right2C2" to="A2top0"/>
    <trip id="280" depart="448.00" from="bottom2C0" to="A2top0"/>
    <trip id="281" depart="449.60" from="left0A0" to="A2top0"/>
    <trip id="282" depart="451.20" from="top0A2" to="C1right1"/>
    <trip id="283" depart="452.80" from="B0B1" to="C2top2"/>
    <trip id="284" depart="454.40" from="left2A2" to="C1right1"/>
    <trip id="285" depart="456.00" from="right1C1" to="B0bottom1"/>
    <trip id="286" depart="457.60" from="right1C1" to="C2top2"/>
    <trip id="287" depart="459.20" from="C2B2" to="C1right1"/>
    <trip id="288" depart="460.80" from="left1A1" to="B1A1"/>
    <trip id="289" depart="462.40" from="bottom2C0" to="C0right0"/>
    <trip id="290" depart="464.00" from="C2B2" to="C1right1"/>
    <trip id="291" depart="465.60" from="top0A2" to="A0left0"/>
    <trip id="292" depart="467.20" from="top1B2" to="A2A1"/>
    <trip id="293" depart="468.80" from="left0A0" to="B2top1"/>
    <trip id="294" depart="470.40" from="bottom1B0" to="A0bottom0"/>
    <trip id="295" depart="472.00" from="top0A2" to="A1left1"/>
    <trip id="296" depart="473.60" from="C0B0" to="C1right1"/>
    <trip id="297" depart="475.20" from="bottom0A0" to="C2C1"/>
    <trip id="298" depart="476.80" from="right0C0" to="A2left2"/>
    <trip id="299" depart="478.40" from="A0A1" to="C2top2"/>
    <trip id="300" depart="480.00" from="B0A0" to="C0right0"/>
    <trip id="301" depart="481.60" from="left0A0" to="C0right0"/>
    <trip id="302" depart="483.20" from="right0C0" to="C0bottom2"/>
    <trip id="303" depart="484.80" from="left0A0" to="C1C2"/>
    <trip id="304" depart="486.40" from="B0A0" to="A1left1"/>
    <trip id="305" depart="488.00" from="right0C0" to="A2left2"/>
    <trip id="306" depart="489.60" from="left1A1" to="B0bottom1"/>
    <trip id="307" depart="491.20" from="left1A1" to="B0bottom1"/>
    <trip id="308" depart="492.80" from="right1C1" to="A2top0"/>
    <trip id="309" depart="494.40" from="right1C1" to="A2left2"/>
    <trip id="310" depart="496.00" from="C1C2" to="A0left0"/>
    <trip id="311" depart="497.60" from="B2C2" to="A0left0"/>
    <trip id="312" depart="499.20" from="left1A1" to="C1B1"/>
    <trip id="313" depart="500.80" from="B2B1" to="A1left1"/>
    <trip id="314" depart="502.40" from="left0A0" to="C0right0"/>
    <trip id="315" depart="504.00" from="top2C2" to="B2A2"/>
    <trip id="316" depart="505.60" from="C2C1" to="A0left0"/>
    <trip id="317" depart="507.20" from="B2C2" to="A1left1"/>
    <trip id="318" depart="508.80" from="B2B1" to="A0B0"/>
    <trip id="319" depart="510.40" from="left1A1" to="A2left2"/>
    <trip id="320" depart="512.00" from="top2C2" to="B2C2"/>
    <trip id="321" depart="513.60" from="right0C0" to="A0left0"/>
    <trip id="322" depart="515.20" from="top0A2" to="B1B0"/>
    <trip id="323" depart="516.80" from="top0A2" to="B2top1"/>
    <trip id="324" depart="518.40" from="left0A0" to="B0bottom1"/>
    <trip id="325" depart="520.00" from="B2B1" to="A0bottom0"/>
    <trip id="326" depart="521.60" from="top2C2" to="B1A1"/>
    <trip id="327" depart="523.20" from="top0A2" to="B0B1"/>
    <trip id="328" depart="524.80" from="A2B2" to="C0B0"/>
    <trip id="329" depart="526.40" from="A1B1" to="A1A0"/>
    <trip id="330" depart="528.00" from="left1A1" to="A2left2"/>
    <trip id="331" depart="529.60" from="top2C2" to="A0left0"/>
    <trip id="332" depart="531.20" from="right2C2" to="B2top1"/>
    <trip id="333" depart="532.80" from="right2C2" to="A1left1"/>
    <trip id="334" depart="534.40" from="left0A0" to="B0bottom1"/>
    <trip id="335" depart="536.00" from="bottom2C0" to="C2B2"/>
    <trip id="336" depart="537.60" from="top2C2" to="A2left2"/>
    <trip id="337" depart="539.20" from="left2A2" to="B2top1"/>
    <trip id="338" depart="540.80" from="right1C1" to="C2top2"/>
    <trip id="339" depart="542.40" from="C0B0" to="A1left1"/>
    <trip id="340" depart="544.00" from="right0C0" to="A1A2"/>
    <trip id="341" depart="545.60" from="B2A2" to="A0bottom0"/>
    <trip id="342" depart="547.20" from="A0A1" to="B0bottom1"/>
    <trip id="343" depart="548.80" from="left2A2" to="A2left2"/>
    <trip id="344" depart="550.40" from="C1B1" to="C0right0"/>
    <trip id="345" depart="552.00" from="right1C1" to="B0bottom1"/>
    <trip id="346" depart="553.60" from="right0C0" to="C2right2"/>
    <trip id="347" depart="555.20" from="right2C2" to="C0B0"/>
    <trip id="348" depart="556.80" from="right0C0" to="C2right2"/>
    <trip id="349" depart="558.40" from="bottom2C0" to="B2B1"/>
    <trip id="350" depart="560.00" from="right0C0" to="C2right2"/>
    <trip id="351" depart="561.60" from="top0A2" to="A0bottom0"/>
    <trip id="352" depart="563.20" from="B1C1" to="A2left2"/>
    <trip id="353" depart="564.80" from="right1C1" to="B2top1"/>
    <trip id="354" depart="566.40" from="bottom0A0" to="A0left0"/>
    <trip id="355" depart="568.00" from="right0C0" to="C0bottom2"/>
    <trip id="356" depart="569.60" from="top2C2" to="B1B2"/>
    <trip id="357" depart="571.20" from="left0A0" to="A0bottom0"/>
    <trip id="358" depart="572.80" from="A1A2" to="B0bottom1"/>
    <trip id="359" depart="574.40" from="bottom0A0" to="A2B2"/>
    <trip id="360" depart="576.00" from="B0A0" to="C2top2"/>
    <trip id="361" depart="577.60" from="top0A2" to="B2top1"/>
    <trip id="362" depart="579.20" from="top2C2" to="C2top2"/>
    <trip id="363" depart="580.80" from="right0C0" to="A2left2"/>
    <trip id="364" depart="582.40" from="A1A2" to="C0right0"/>
    <trip id="365" depart="584.00" from="left0A0" to="C0bottom2"/>
    <trip id="366" depart="585.60" from="top1B2" to="A1left1"/>
    <trip id="367" depart="587.20" from="left2A2" to="C0C1"/>
    <trip id="368" depart="588.80" from="left0A0" to="A0left0"/>
    <trip id="369" depart="590.40" from="bottom1B0" to="A2top0"/>
    <trip id="370" depart="592.00" from="right0C0" to="C2B2"/>
    <trip id="371" depart="593.60" from="bottom0A0" to="C0bottom2"/>
    <trip id="372" depart="595.20" from="bottom0A0" to="C2top2"/>
    <trip id="373" depart="596.80" from="right2C2" to="B2C2"/>
    <trip id="374" depart="598.40" from="bottom2C0" to="A2left2"/>
</routes>
